Version 4
SHEET 1 880 680
WIRE 192 128 192 112
WIRE -64 144 -160 144
WIRE 16 144 0 144
WIRE 144 144 16 144
WIRE -160 160 -160 144
WIRE 256 176 240 176
WIRE 336 176 256 176
WIRE 144 208 128 208
WIRE 192 240 192 224
WIRE -160 256 -160 240
WIRE -448 304 -448 288
WIRE 128 320 128 208
WIRE 160 320 128 320
WIRE 256 320 256 176
WIRE 256 320 240 320
WIRE 16 368 16 144
WIRE -448 400 -448 384
WIRE -240 400 -240 384
WIRE 128 432 128 320
WIRE -240 496 -240 480
WIRE -112 496 -240 496
WIRE -80 496 -112 496
WIRE 16 496 16 448
WIRE 16 496 0 496
WIRE -240 512 -240 496
WIRE -112 528 -112 496
WIRE 16 528 16 496
WIRE 128 528 128 512
WIRE -240 608 -240 592
WIRE -112 608 -112 592
WIRE 16 608 16 592
WIRE 128 608 128 592
FLAG -448 400 0
FLAG -448 288 VCC
FLAG 192 112 VCC
FLAG -160 256 0
FLAG 192 240 0
FLAG -240 608 0
FLAG -240 384 VCC
FLAG -112 608 0
FLAG 16 608 0
FLAG 128 608 0
FLAG 336 176 Vout
SYMBOL AutoGenerated\\LMP7715 192 176 R0
SYMATTR InstName U1
SYMBOL voltage -160 144 R0
WINDOW 3 24 152 Left 2
WINDOW 123 24 180 Left 2
WINDOW 39 24 124 Left 2
SYMATTR InstName Vin
SYMATTR Value SINE(0 2m 500)
SYMATTR Value2 AC 1
SYMATTR SpiceLine Rser=300
SYMBOL Misc\\battery -448 288 R0
WINDOW 123 0 0 Left 0
WINDOW 39 0 0 Left 0
SYMATTR InstName V2
SYMATTR Value 3.3
SYMBOL cap 0 128 R90
WINDOW 0 0 32 VBottom 2
WINDOW 3 32 32 VTop 2
SYMATTR InstName C1
SYMATTR Value 1µ
SYMBOL res -256 384 R0
SYMATTR InstName R4
SYMATTR Value 1Meg
SYMBOL res -256 496 R0
SYMATTR InstName R5
SYMATTR Value 1Meg
SYMBOL cap -128 528 R0
SYMATTR InstName C5
SYMATTR Value 47n
SYMBOL cap 0 528 R0
SYMATTR InstName C6
SYMATTR Value 47n
SYMBOL res 16 480 R90
WINDOW 0 0 56 VBottom 2
WINDOW 3 32 56 VTop 2
SYMATTR InstName R6
SYMATTR Value 1Meg
SYMBOL res 32 464 R180
WINDOW 0 36 76 Left 2
WINDOW 3 36 40 Left 2
SYMATTR InstName R1
SYMATTR Value 1Meg
SYMBOL res 112 416 R0
SYMATTR InstName R2
SYMATTR Value 1k
SYMBOL res 256 304 R90
WINDOW 0 0 56 VBottom 2
WINDOW 3 32 56 VTop 2
SYMATTR InstName R3
SYMATTR Value 499k
SYMBOL cap 112 528 R0
SYMATTR InstName C2
SYMATTR Value 2.2µ
TEXT -350 -32 Left 2 !;.ac dec 100 20 20k
TEXT -354 -8 Left 2 !;.tran 20 startup
TEXT -354 16 Left 2 !.noise V(Vout) Vin dec 100 20 20k
